[TITLE]
Scenario: ??  								 
Date: 2018/8/14 22:28:17  								 

[JUNCTIONS]
 BJD000019                             0.0000
 BJD000020                             0.0000
 BJD000026                             0.0000
 BJD000027                             0.0000
 BJD000033                             0.0000
 BJD000038                             0.0000
 BJD000040                             0.0000
 BJD000041                             0.0000
 BJD000051                             0.0000
 BJD000056                             0.0000
 BJD00006287                           0.0000
 BJD00006369                           0.0000
 BJD00006377                           0.0000
 BJD00008747                           0.0000
 BJD00008748                           0.0000
 BJD000095                             0.0000
 BJD000103                             0.0000
 BJD000117                             0.0000
 BJD000123                             0.0000
 BJD000125                             0.0000
 BJD000130                             0.0000
 BJD000158                             0.0000
 BJD000169                             0.0000
 BJD000202                             0.0000
 BJD000210                             0.0000
 BJD000214                             0.0000
 BJD000233                             0.0000
 BJD000248                             0.0000
 BJD000296                             0.0000
 BJD000346                             0.0000
 BJD000352                             0.0000
 BJD000359                             0.0000
 BJD000374                             0.0000
 BJD000376                             0.0000
 BJD000380                             0.0000
 BJD000398                             0.0000
 BJD000400                             0.0000
 BJD000406                             0.0000
 BJD000424                             0.0000
 BJD000432                             0.0000
 BJD000443                             0.0000
 BJD000453                             0.0000
 BJD000455                             0.0000
 BJD000457                             0.0000
 BJD000472                             0.0000
 BJD000474                             0.0000
 BJD000477                             0.0000
 BJD000499                             0.0000
 BJD000500                             0.0000
 BJD000502                             0.0000
 BJD000503                             0.0000
 BJD000601                             0.0000
 BJD000605                             0.0000
 BJD000657                             0.0000
 BJD000660                             0.0000
 BJD000664                             0.0000
 BJD000678                             0.0000
 BJD000680                             0.0000
 BJD000681                             0.0000
 BJD000709                             0.0000
 BJD000749                             0.0000
 BJD000771                             0.0000
 BJD000786                             0.0000
 BJD000792                             0.0000
 BJD000808                             0.0000
 BJD000809                             0.0000
 BJD000811                             0.0000
 BJD000816                             0.0000
 BJD000817                             0.0000
 BJD000818                             0.0000
 BJD000820                             0.0000
 BJD000823                             0.0000
 BJD000844                             0.0000
 BJD000845                             0.0000
 BJD000848                             0.0000
 BJD000866                             0.0000
 BJD000898                             0.0000
 BJD000928                             0.0000
 BJD000935                             0.0000
 BJD000958                             0.0000
 BJD000959                             0.0000
 BJD000960                             0.0000
 BJD000961                             0.0000
 BJD001141                             0.0000
 BJD001144                             0.0000
 BJD001148                             0.0000
 BJD001248                             0.0000
 BJD001371                             0.0000
 BJD001427                             0.0000
 BJD001516                             0.0000
 BJD001517                             0.0000
 BJD001591                             0.0000
 BJD002208                             0.0000
 BJD002528                             0.0000
 BJD002529                             0.0000
 BJD002530                             0.0000
 BJD003309                             0.0000
 BJD003312                             0.0000
 BJD003858                             0.0000
 BJD004236                             0.0000
 BJD004332                             0.0000
 BJD004345                             0.0000
 BJD004471                             0.0000
 BJD004491                             0.0000
 BJD004494                             0.0000
 BJD004556                             0.0000
 CLD0003                               0.9500
 CLD0004                               0.0000
 CLD0005                               1.7800
 CLD0006                               2.8000
 CLD0010                               4.3300
 CLD0011                               2.1100
 CLD0014                               2.0400
 CLD0018                               1.9500
 CLD0022                               0.0000
 CLD0028                               0.5000
 CLD0031                               1.5500
 CLD0032                               1.5800
 CLD0036                               1.8400
 CLD0044                               3.4100
 CLD0045                               2.0500
 CLD0047                               1.0900
 CLD0048                               4.7100
 CLD0049                               0.0000
 CLD0050                               4.5600
 CLD0051                               1.1100
 CLD0052                               0.3900
 CLD0053                               0.9300
 CLD0054                               2.4900
 CLD0056                               1.9000
 CLD0057                               0.4100
 CLD0058                               3.2200
 CLD0059                               4.3300
 CLD0060                               0.6600
 CLD0061                               2.0900
 CLD0062                               3.0300
 CLD0064                               6.7900
 CLD0065                              -0.8400
 CLD0066                               3.9000
 CLD0067                               3.4300
 CLD0069                               1.3900
 CLD0070                               0.5400
 CLD0071                               1.4300
 CLD0074                               1.2400
 CLD0076                               0.4100
 CLD0077                               1.5300
 CLD0078                               1.8800
 CLD0079                              -1.0300
 CLD0080                               4.0700
 CLD0083                               1.0900
 CLD0085                               1.2100
 CLD0087                               0.3500
 DD00002857                            0.0000
 DD00003042                            0.0000
 DD00003629                            0.0000
 DD00003803                            0.0000
 DD00003805                            0.0000
 DD00003850                            0.0000
 DD00003851                            0.0000
 DD00004284                            0.0000
 JLB0107                               0.0000
 JLB0313                               0.0000
 JLB0459                               0.0000
 QT00000027                            0.0000
 QT00000127                            0.0000
 QT00000211                            0.0000
 QT00000212                            0.0000
 QT00000223                            0.0000
 QT00000259                            0.0000
 QT00000269                            0.0000
 QT00000270                            0.0000
 QT00000276                            0.0000
 QT00000284                            0.0000
 QT00000285                            0.0000
 QT00000295                            0.0000
 QT00000584                            0.0000
 QT00000639                            0.0000
 QT00000652                            0.0000
 QT00000668                            0.0000
 QT00000693                            0.0000
 QT00000694                            0.0000
 QT00000738                            0.0000
 QT00000740                            0.0000
 QT00000741                            0.0000
 QT00000744                            0.0000
 QT00000756                            0.0000
 QT00000758                            0.0000
 QT00000760                            0.0000
 QT00000766                            0.0000
 QT00000770                            0.0000
 QT00000807                            0.0000
 QT00000844                            0.0000
 QT00000865                            0.0000
 QT00000927                            0.0000
 QT00000953                            0.0000
 QT00000958                            0.0000
 QT00000978                            0.0000
 QT00000979                            0.0000
 QT00001204                            0.0000
 QT00001272                            0.0000
 QT00001273                            0.0000
 QT00001274                            0.0000
 QT00001275                            0.0000
 CLD0007                               4.4300
 QT00001690                            0.0000
 QT00001926                            0.0000
 QT00002025                            0.0000
 QT00002044                            0.0000
 1030                                  0.0000
 QT00002433                            0.0000
 QT00002435                            0.0000
 QT00002495                            0.0000
 QT00002682                            0.0000
 QT00002683                            0.0000
 QT00003065                            0.0000
 QT00003076                            0.0000
 QT00003284                            0.0000
 QT00003329                            0.0000
 QT00003364                            0.0000
 QT00003366                            0.0000
 QT00003433                            0.0000
 QT00003941                            0.0000
 QT00004135                            0.0000
 QT00004136                            0.0000
 QT00004141                            0.0000
 QT00004237                            0.0000
 QT00004835                            0.0000
 QT00004918                            0.0000
 QT00005355                            0.0000
 QT00005533                            0.0000
 QT00005536                            0.0000
 QT00007307                            0.0000
 QT00007474                            0.0000
 QT00007490                            0.0000
 QT00007500                            0.0000
 QT00007501                            0.0000
 QT00007519                            0.0000
 QT00008244                            0.0000
 QT00008276                            0.0000
 QT00008304                            0.0000
 QT00008312                            0.0000
 QT00008320                            0.0000
 QT00008328                            0.0000
 QT00008550                            0.0000
 QT00008600                            0.0000
 QT00008601                            0.0000
 QT00008617                            0.0000
 QT00008633                            0.0000
 QT00008753                            0.0000
 QT00008770                            0.0000
 QT00008786                            0.0000
 QT00008808                            0.0000
 QT00008817                            0.0000
 QT00008833                            0.0000
 QT00008849                            0.0000
 QT00008884                            0.0000
 QT00008978                            0.0000
 QT00009007                            0.0000
 QT00009013                            0.0000
 QT00009031                            0.0000
 QT00009109                            0.0000
 QT00009171                            0.0000
 QT00009187                            0.0000
 QT00009222                            0.0000
 QT00009279                            0.0000
 QT00009315                            0.0000
 QT00009333                            0.0000
 QT00009492                            0.0000
 QT00009503                            0.0000
 QT00009532                            0.0000
 QT00010046                            0.0000
 QT00010271                            0.0000
 QT00010287                            0.0000
 QT00010492                            0.0000
 QT00010690                            0.0000
 QT00010918                            0.0000
 QT00010920                            0.0000
 QT00011296                            0.0000
 QT00011476                            0.0000
 QT00012045                            0.0000
 QT00022182                            0.0000
 QT00022219                            0.0000
 QT00034123                            0.0000
 QT00034141                            0.0000
 QT00034142                            0.0000
 QT00034182                            0.0000
 QT00034460                            0.0000
 QT00035438                            0.0000
 QT00035440                            0.0000
 QT00035491                            0.0000
 QT00035495                            0.0000
 QT00035522                            0.0000
 QT00035528                            0.0000
 QT00035530                            0.0000
 QT00036932                            0.0000
 QT00051831                            0.0000
 QT00051832                            0.0000
 QT00051839                            0.0000
 QT00051925                            0.0000
 QT00052012                            0.0000
 QT00052494                            0.0000
 QT00052510                            0.0000
 QT00052526                            0.0000
 QT00052542                            0.0000
 QT00052546                            0.0000
 QT00055239                            0.0000
 QT00055240                            0.0000
 ST00000001                            0.0000
 ST00000023                            0.0000
 ST00000028                            0.0000
 ST00000029                            0.0000
 ST00000044                            0.0000
 ST00000067                            0.0000
 ST00000078                            0.0000
 ST00000079                            0.0000
 ST00000082                            0.0000
 ST00000090                            0.0000
 ST00000091                            0.0000
 ST00000093                            0.0000
 ST00000094                            0.0000
 ST00000095                            0.0000
 ST00000103                            0.0000
 ST00000104                            0.0000
 ST00000105                            0.0000
 ST00000106                            0.0000
 ST00000107                            0.0000
 ST00000128                            0.0000
 ST00000136                            0.0000
 ST00000153                            0.0000
 ST00000166                            0.0000
 ST00000177                            0.0000
 ST00000180                            0.0000
 ST00000181                            0.0000
 ST00000183                            0.0000
 ST00000199                            0.0000
 ST00000203                            0.0000
 ST00000204                            0.0000
 ST00000205                            0.0000
 ST00000207                            0.0000
 ST00000227                            0.0000
 ST00000239                            0.0000
 ST00000244                            0.0000
 ST00000245                            0.0000
 ST00000251                            0.0000
 ST00000253                            0.0000
 ST00000259                            0.0000
 ST00000265                            0.0000
 ST00000271                            0.0000
 ST00000278                            0.0000
 ST00000293                            0.0000
 ST00000298                            0.0000
 ST00000302                            0.0000
 ST00000315                            0.0000
 ST00000320                            0.0000
 ST00000321                            0.0000
 ST00000324                            0.0000
 ST00000329                            0.0000
 ST00000330                            0.0000
 ST00000353                            0.0000
 ST00000356                            0.0000
 ST00000369                            0.0000
 ST00000370                            0.0000
 ST00000384                            0.0000
 ST00000385                            0.0000
 ST00000386                            0.0000
 ST00000395                            0.0000
 ST00000404                            0.0000
 ST00000426                            0.0000
 ST00000428                            0.0000
 ST00000430                            0.0000
 ST00000436                            0.0000
 ST00000441                            0.0000
 ST00000443                            0.0000
 ST00000460                            0.0000
 ST00000476                            0.0000
 ST00000530                            0.0000
 ST00000536                            0.0000
 ST00000537                            0.0000
 ST00000544                            0.0000
 ST00000548                            0.0000
 ST00000549                            0.0000
 ST00000550                            0.0000
 ST00000555                            0.0000
 ST00000565                            0.0000
 ST00000568                            0.0000
 ST00000591                            0.0000
 ST00000592                            0.0000
 ST00000593                            0.0000
 ST00000594                            0.0000
 ST00000599                            0.0000
 ST00000607                            0.0000
 ST00000624                            0.0000
 ST00000635                            0.0000
 ST00000637                            0.0000
 ST00000655                            0.0000
 ST00000657                            0.0000
 ST00000669                            0.0000
 ST00000670                            0.0000
 ST00000673                            0.0000
 ST00000675                            0.0000
 ST00000677                            0.0000
 ST00000679                            0.0000
 ST00000680                            0.0000
 ST00000681                            0.0000
 ST00000683                            0.0000
 ST00000684                            0.0000
 ST00000687                            0.0000
 ST00000691                            0.0000
 ST00000693                            0.0000
 ST00000705                            0.0000
 ST00000713                            0.0000
 ST00000716                            0.0000
 ST00000725                            0.0000
 ST00000727                            0.0000
 ST00000728                            0.0000
 ST00000737                            0.0000
 ST00000738                            0.0000
 ST00000747                            0.0000
 ST00000751                            0.0000
 ST00000799                            0.0000
 ST00000804                            0.0000
 ST00000823                            0.0000
 ST00000831                            0.0000
 ST00000832                            0.0000
 ST00000845                            0.0000
 ST00000847                            0.0000
 ST00000875                            0.0000
 ST00000891                            0.0000
 ST00000892                            0.0000
 ST00000893                            0.0000
 ST00000900                            0.0000
 ST00000917                            0.0000
 ST00000918                            0.0000
 ST00000925                            0.0000
 ST00000926                            0.0000
 ST00000945                            0.0000
 ST00000946                            0.0000
 ST00000949                            0.0000
 ST00000955                            0.0000
 ST00001031                            0.0000
 ST00001032                            0.0000
 ST00001039                            0.0000
 ST00001042                            0.0000
 ST00001055                            0.0000
 ST00001070                            0.0000
 ST00001073                            0.0000
 ST00001083                            0.0000
 ST00001103                            0.0000
 ST00001118                            0.0000
 ST00001139                            0.0000
 ST00001140                            0.0000
 ST00001141                            0.0000
 ST00001144                            0.0000
 ST00001146                            0.0000
 ST00001208                            0.0000
 ST00001215                            0.0000
 ST00001218                            0.0000
 ST00001226                            0.0000
 ST00001238                            0.0000
 ST00001239                            0.0000
 ST00001257                            0.0000
 ST00001272                            0.0000
 ST00001282                            0.0000
 ST00001288                            0.0000
 ST00001303                            0.0000
 ST00001305                            0.0000
 ST00001307                            0.0000
 ST00001324                            0.0000
 ST00001328                            0.0000
 ST00001347                            0.0000
 ST00001381                            0.0000
 ST00001404                            0.0000
 ST00001421                            0.0000
 ST00001443                            0.0000
 ST00001447                            0.0000
 ST00001449                            0.0000
 ST00001452                            0.0000
 ST00001458                            0.0000
 ST00001479                            0.0000
 ST00001536                            0.0000
 ST00001537                            0.0000
 ST00001538                            0.0000
 ST00001552                            0.0000
 ST00001556                            0.0000
 ST00001557                            0.0000
 ST00001577                            0.0000
 ST00001578                            0.0000
 ST00001580                            0.0000
 ST00001586                            0.0000
 ST00001590                            0.0000
 ST00001592                            0.0000
 ST00001612                            0.0000
 ST00001613                            0.0000
 ST00001633                            0.0000
 ST00001675                            0.0000
 ST00001717                            0.0000
 ST00001720                            0.0000
 ST00001743                            0.0000
 ST00001750                            0.0000
 ST00001759                            0.0000
 ST00001762                            0.0000
 ST00001770                            0.0000
 ST00001771                            0.0000
 ST00001796                            0.0000
 ST00001818                            0.0000
 ST00001828                            0.0000
 ST00001830                            0.0000
 ST00001838                            0.0000
 ST00001908                            0.0000
 ST00001931                            0.0000
 ST00001964                            0.0000
 ST00001965                            0.0000
 ST00001968                            0.0000
 ST00001998                            0.0000
 ST00002001                            0.0000
 ST00002006                            0.0000
 ST00002011                            0.0000
 ST00002048                            0.0000
 ST00002049                            0.0000
 ST00002072                            0.0000
 ST00002118                            0.0000
 ST00002161                            0.0000
 ST00002168                            0.0000
 ST00002170                            0.0000
 ST00002173                            0.0000
 ST00002174                            0.0000
 ST00002197                            0.0000
 ST00002208                            0.0000
 ST00002213                            0.0000
 ST00002244                            0.0000
 ST00002349                            0.0000
 ST00002353                            0.0000
 ST00002357                            0.0000
 ST00002359                            0.0000
 ST00002360                            0.0000
 ST00002361                            0.0000
 ST00002402                            0.0000
 ST00002406                            0.0000
 ST00002407                            0.0000
 ST00002408                            0.0000
 ST00002419                            0.0000
 ST00002420                            0.0000
 ST00002426                            0.0000
 ST00002430                            0.0000
 ST00002432                            0.0000
 ST00002433                            0.0000
 ST00002451                            0.0000
 ST00002452                            0.0000
 ST00002457                            0.0000
 ST00002486                            0.0000
 ST00002487                            0.0000
 ST00002497                            0.0000
 ST00002501                            0.0000
 ST00002506                            0.0000
 ST00002508                            0.0000
 ST00002553                            0.0000
 ST00002554                            0.0000
 ST00002603                            0.0000
 ST00002643                            0.0000
 ST00002663                            0.0000
 ST00002694                            0.0000
 ST00002695                            0.0000
 ST00002696                            0.0000
 ST00002698                            0.0000
 ST00002706                            0.0000
 ST00002708                            0.0000
 ST00002713                            0.0000
 ST00002791                            0.0000
 ST00002819                            0.0000
 ST00002820                            0.0000
 ST00002850                            0.0000
 ST00002854                            0.0000
 ST00002875                            0.0000
 ST00002894                            0.0000
 ST00002898                            0.0000
 ST00002899                            0.0000
 ST00002905                            0.0000
 ST00002906                            0.0000
 ST00002908                            0.0000
 ST00003058                            0.0000
 ST00003088                            0.0000
 ST00003104                            0.0000
 ST00003107                            0.0000
 ST00003160                            0.0000
 ST00003191                            0.0000
 ST00003193                            0.0000
 ST00003194                            0.0000
 ST00003245                            0.0000
 ST00003246                            0.0000
 ST00003264                            0.0000
 ST00003272                            0.0000
 ST00003288                            0.0000
 ST00003295                            0.0000
 ST00003302                            0.0000
 ST00003377                            0.0000
 ST00003435                            0.0000
 ST00003488                            0.0000
 ST00003492                            0.0000
 ST00003495                            0.0000
 ST00003508                            0.0000
 ST00003510                            0.0000
 ST00003515                            0.0000
 ST00003518                            0.0000
 ST00003524                            0.0000
 ST00003550                            0.0000
 ST00003551                            0.0000
 ST00003559                            0.0000
 ST00003566                            0.0000
 ST00003602                            0.0000
 ST00003615                            0.0000
 ST00003616                            0.0000
 ST00003617                            0.0000
 ST00003626                            0.0000
 ST00003637                            0.0000
 ST00003638                            0.0000
 ST00003642                            0.0000
 ST00003647                            0.0000
 ST00003655                            0.0000
 ST00003665                            0.0000
 ST00003666                            0.0000
 ST00003683                            0.0000
 ST00003702                            0.0000
 ST00003706                            0.0000
 ST00003708                            0.0000
 ST00003709                            0.0000
 ST00003710                            0.0000
 ST00003711                            0.0000
 ST00003713                            0.0000
 ST00003718                            0.0000
 ST00003720                            0.0000
 ST00003727                            0.0000
 ST00003730                            0.0000
 ST00003733                            0.0000
 ST00003734                            0.0000
 ST00003735                            0.0000
 ST00003859                            0.0000
 ST00003860                            0.0000
 ST00003864                            0.0000
 ST00003869                            0.0000
 ST00003872                            0.0000
 ST00003886                            0.0000
 ST00003920                            0.0000
 ST00003921                            0.0000
 ST00003939                            0.0000
 ST00003949                            0.0000
 ST00004020                            0.0000
 ST00004055                            0.0000
 ST00004059                            0.0000
 ST00004077                            0.0000
 ST00004078                            0.0000